%mem=4GB
%nprocshared=4
%chk=cuf.chk
# bhandhlyp/gen 5d 7f int=dkhso

This is a DKH4/BHandHLYP calculation

0 1
F
Cu 1 r1

r1=1.74493

! F: x2c-TZVPPall(-f)
F     0
S    6   1.00
  35721.6726210             -0.39516581043D-03
   5293.7357902             -0.21671165129D-02
   1212.1233905             -0.10117651059D-01
    342.91286364            -0.39833202647D-01
    112.42603582            -0.12435220163
     40.917545282           -0.28894149224
S    2   1.00
     16.262198742           -0.16614250170
      6.6517722909          -0.11043222887
S    1   1.00
      1.5555333785           1.0000000000
S    1   1.00
      0.61736850796          1.0000000000
S    1   1.00
      0.24009983000          1.0000000000
P    4   1.00
     80.393337858            0.64612648937D-02
     18.592865893            0.44468574014D-01
      5.6864847621           0.16885981999
      1.9512846036           0.36162926025
P    1   1.00
      0.66982956805          1.0000000000
P    1   1.00
      0.21650052060          1.0000000000
D    1   1.00
      3.1070000000           1.0000000000
D    1   1.00
      0.85500000000          1.0000000000
!F    1   1.00
!      1.9170000000           1.0000000000
****
! CU: x2c-TZVPPall, primitive pdfg + 1p3d steep functions
! The purpose of this job is to calculate EFG (Vc) of Cu, so the s-functions
! remain contracted without including additional steep s-functions.
Cu     0
S    8   1.00
 793381.8481500              0.89247061344D-03
  97536.9490810              0.36902944490D-02
  19424.0686460              0.13948594586D-01
   4991.5736727              0.49359561443D-01
   1510.9624047              0.15652874364
    514.24131015             0.38900974637
    189.87446113             0.61933782039
     71.709887908            0.36792977350
S    4   1.00
    445.99661899            -0.28130106367D-01
    134.83539905            -0.13406793483
     21.549104284            0.65438537453
      9.1359413839           0.65239044006
S    2   1.00
     14.183838230           -0.27255554441
      2.3090292782           0.86149410937
S    1   1.00
      0.92596935601          1.0000000000
S    1   1.00
      0.11576838494          1.0000000000
S    1   1.00
      0.41063147460D-01      1.0000000000
P    1   1.00
   5813.6649616              1.0000000
P    1   1.00
   2619.7906715              1.0000000
P    1   1.00
    565.87530275             1.0000000
P    1   1.00
    173.33066974             1.0000000
P    1   1.00
     62.737186023            1.0000000
P    1   1.00
     24.526325899            1.0000000
P    1   1.00
      9.8120044380           1.0000000
P    1   1.00
     38.394113114            1.0000000
P    1   1.00
      5.2442689980           1.0000000
P    1   1.00
      2.0618079464           1.0000000
P    1   1.00
      0.75640057847          1.0000000
P    1   1.00
      0.2711000              1.0000000
P    1   1.00
      0.0995400              1.0000000
D    1   1.00
     1428.9268604            1.0000000
D    1   1.00
     491.72240831            1.0000000
D    1   1.00
     169.21154857            1.0000000
D    1   1.00
     84.220180841            1.0000000
D    1   1.00
     23.119378594            1.0000000
D    1   1.00
      7.8757305041           1.0000000
D    1   1.00
      2.8397775049           1.0000000
D    1   1.00
      0.95861441021          1.0000000
D    1   1.00
      0.28376483588          1.0000000
D    1   1.00
      0.85D-01               1.0000000
F    1   1.00
      4.9360000              1.0000000
F    1   1.00
      1.2090000              1.0000000
G    1   1.00
      3.2450000              1.0000000
****

Note.
1. IOp(3/93=2) should be specified for the finite nuclear charge distribution,
   which is the default option for quasi-relativistic calculation.
2. Vc results of Cu: BHandHLYP = -0.391, Expt. = -0.425 (in a.u.)
   See J. Chem. Phys. 119, 5988 (2003).
